802
     RDKit          3D

 13 14  0  0  0  0  0  0  0  0999 V2000
  -13.1145   -6.7619   -5.1488 O   0  0  0  0  0  0  0  0  0  0  0  0
  -12.0740   -6.7246   -3.1254 O   0  0  0  0  0  0  0  0  0  0  0  0
  -12.2150   -9.3835   -7.9891 N   0  0  0  0  0  0  0  0  0  0  0  0
  -10.9807  -10.1920   -6.3402 C   0  0  0  0  0  0  0  0  0  0  0  0
  -11.6691   -9.1020   -5.8426 C   0  0  0  0  0  0  0  0  0  0  0  0
  -11.3234  -10.3672   -7.6853 C   0  0  0  0  0  0  0  0  0  0  0  0
  -12.4189   -8.6325   -6.8902 C   0  0  0  0  0  0  0  0  0  0  0  0
  -11.5687   -8.6364   -4.4319 C   0  0  0  0  0  0  0  0  0  0  0  0
  -10.0779  -11.0444   -5.7502 C   0  0  0  0  0  0  0  0  0  0  0  0
  -10.7391  -11.4027   -8.3805 C   0  0  0  0  0  0  0  0  0  0  0  0
   -9.4999  -12.0817   -6.4699 C   0  0  0  0  0  0  0  0  0  0  0  0
   -9.8283  -12.2744   -7.8074 C   0  0  0  0  0  0  0  0  0  0  0  0
  -12.2604   -7.3544   -4.2282 C   0  0  0  0  0  0  0  0  0  0  0  0
  1 13  1  0
  2 13  2  0
  3  6  1  0
  3  7  1  0
  4  5  1  0
  4  6  2  0
  4  9  1  0
  5  7  2  0
  5  8  1  0
  6 10  1  0
  8 13  1  0
  9 11  2  0
 10 12  2  0
 11 12  1  0
M  END
>  <PUBCHEM_COMPOUND_CID>  (1) 
802

>  <PUBCHEM_CONFORMER_RMSD>  (1) 
0.6

>  <PUBCHEM_CONFORMER_DIVERSEORDER>  (1) 
1
4
6
5
2
3

>  <PUBCHEM_MMFF94_PARTIAL_CHARGES>  (1) 
19
1 -0.65
10 -0.15
11 -0.15
12 -0.15
13 0.66
16 0.15
17 0.27
18 0.15
19 0.15
2 -0.57
20 0.15
21 0.15
22 0.5
3 0.03
5 -0.18
6 -0.15
7 -0.3
8 0.24
9 -0.15

>  <PUBCHEM_EFFECTIVE_ROTOR_COUNT>  (1) 
2

>  <PUBCHEM_PHARMACOPHORE_FEATURES>  (1) 
7
1 1 acceptor
1 2 acceptor
1 3 cation
1 3 donor
3 1 2 13 anion
5 3 4 5 6 7 rings
6 4 6 9 10 11 12 rings

>  <PUBCHEM_HEAVY_ATOM_COUNT>  (1) 
13

>  <PUBCHEM_ATOM_DEF_STEREO_COUNT>  (1) 
0

>  <PUBCHEM_ATOM_UDEF_STEREO_COUNT>  (1) 
0

>  <PUBCHEM_BOND_DEF_STEREO_COUNT>  (1) 
0

>  <PUBCHEM_BOND_UDEF_STEREO_COUNT>  (1) 
0

>  <PUBCHEM_ISOTOPIC_ATOM_COUNT>  (1) 
0

>  <PUBCHEM_COMPONENT_COUNT>  (1) 
1

>  <PUBCHEM_CACTVS_TAUTO_COUNT>  (1) 
1

>  <PUBCHEM_CONFORMER_ID>  (1) 
0000032200000001

>  <PUBCHEM_MMFF94_ENERGY>  (1) 
18.4837

>  <PUBCHEM_FEATURE_SELFOVERLAP>  (1) 
35.67

>  <PUBCHEM_SHAPE_FINGERPRINT>  (1) 
1 1 18409446977238284134
11031198 65 18409454661108570695
11471102 20 18411136896698268541
12251169 10 11169918285901589449
12654215 9 18335981969830798300
13380535 76 18410574019627584994
14325111 11 18410295856038731705
14911166 2 18341062852065415382
15219456 202 18334022704571488979
15279308 100 18337679727606221516
15775835 57 18412826901904670429
16945 1 18341060644246613674
18186145 218 18413107255673409597
20606313 2 18411137991682690504
21501502 16 18265047110256211198
21524375 3 18334570291184403091
21639500 275 18411971464514887005
21947302 44 18335702715125268051
23402655 69 18343299241462966189
25 1 18410013217067802997
2748010 2 18125171665071472642
3060560 45 18342454807520776903
528886 8 18413108376844347352
63268167 104 18343024375955302632
77492 1 17489309642342492787
81228 2 17614277092887000707

>  <PUBCHEM_SHAPE_MULTIPOLES>  (1) 
250.81
5.19
1.85
0.85
2.67
0.45
-0.11
-2.27
-0.79
-0.72
0.08
0.4
-0.07
0.26

>  <PUBCHEM_SHAPE_SELFOVERLAP>  (1) 
546.205

>  <PUBCHEM_SHAPE_VOLUME>  (1) 
137.9

>  <PUBCHEM_COORDINATE_TYPE>  (1) 
2
5
10

$$$$
